Circuit: * C:\Users\JARVIS\Desktop\rik\Draft2.asc

Ignoring BSIM parameter XL
Ignoring BSIM parameter XW
Ignoring BSIM parameter XL
Ignoring BSIM parameter XW
Warning: Pd = 0 is less than W.
Warning: Ps = 0 is less than W.
Warning: Pd = 0 is less than W.
Warning: Ps = 0 is less than W.
.step wn=2.4e-07
.step wn=4.8e-07
.step wn=7.2e-07
.step wn=9.6e-07



Date: Thu May  4 14:19:25 2023
Total elapsed time: 0.225 seconds.

tnom = 27
temp = 27
method = trap
totiter = 378
traniter = 0
tranpoints = 0
accept = 0
rejected = 0
matrix size = 5
fillins = 0
solver = Normal
Avg thread counts: 3.6/0.0/6.3/3.6
Matrix Compiler1: off  [0.1]/0.2/0.2
Matrix Compiler2: off  [0.1]/0.2/0.1

