Circuit: * C:\Users\JARVIS\Desktop\rik\Draft1.asc

Ignoring BSIM parameter XL
Ignoring BSIM parameter XW
WARNING: Less than two connections to node vdd.  This node is used by r1.
Warning: Pd = 0 is less than W.
Warning: Ps = 0 is less than W.
Direct Newton iteration for .op point succeeded.
.step wn=2.4e-07
.step wn=4.8e-07
.step wn=7.2e-07
.step wn=9.4e-07


Measurement "t_hl" FAIL'ed

Measurement "t_lh" FAIL'ed


Date: Thu May  4 14:13:56 2023
Total elapsed time: 0.208 seconds.

tnom = 27
temp = 27
method = modified trap
totiter = 2267
traniter = 2250
tranpoints = 1102
accept = 1086
rejected = 16
matrix size = 7
fillins = 0
solver = Normal
Avg thread counts: 1.4/1.9/1.9/1.4
Matrix Compiler1: off  [0.1]/0.1/0.1
Matrix Compiler2: off  [0.1]/0.1/0.1

